packages/bdgd2opendss/bdgd2opendss-1.0.1.tar.gz/bdgd2opendss-1.0.1/tests/dss_models_output/sub__/1_ALPE_1/ChavesMT_202312598_1_ALPE_1_------1-----.dss
New "Line.CMT_8CF_1725" phases=3 bus1="783631.1.2.3" bus2="8CF1725.1.2.3" r1=0.001 r0=0.001 x1=0.0 x0=0.0 c1=0.0 c0=0.0  switch = T length=0.00100
New "Line.CMT_8RL_1237" phases=3 bus1="348231.1.2.3" bus2="8RL1237.1.2.3" r1=0.001 r0=0.001 x1=0.0 x0=0.0 c1=0.0 c0=0.0  switch = T length=0.00100
New "Line.CMT_7FR_567" phases=1 bus1="763941.2" bus2="7FR567.2" r1=0.001 r0=0.001 x1=0.0 x0=0.0 c1=0.0 c0=0.0  switch = T length=0.00100
New "Line.CMT_8CF_586" phases=3 bus1="763881.1.2.3" bus2="8CF586.1.2.3" r1=0.001 r0=0.001 x1=0.0 x0=0.0 c1=0.0 c0=0.0  switch = T length=0.00100
New "Line.CMT_8FR_1442" phases=3 bus1="793531.1.2.3" bus2="8FR1442.1.2.3" r1=0.001 r0=0.001 x1=0.0 x0=0.0 c1=0.0 c0=0.0  switch = T length=0.00100
New "Line.CMT_8FR_583" phases=2 bus1="106771.1.2" bus2="8FR583.1.2" r1=0.001 r0=0.001 x1=0.0 x0=0.0 c1=0.0 c0=0.0  switch = T length=0.00100
New "Line.CMT_8FR_908" phases=2 bus1="549591.2.3" bus2="8FR908.2.3" r1=0.001 r0=0.001 x1=0.0 x0=0.0 c1=0.0 c0=0.0  switch = T length=0.00100
New "Line.CMT_8FR_337" phases=3 bus1="770041.1.2.3" bus2="8FR337.1.2.3" r1=0.001 r0=0.001 x1=0.0 x0=0.0 c1=0.0 c0=0.0  switch = T length=0.00100
New "Line.CMT_8CF_1883" phases=1 bus1="791901.1" bus2="8CF1883.1" r1=0.001 r0=0.001 x1=0.0 x0=0.0 c1=0.0 c0=0.0  switch = T length=0.00100
New "Line.CMT_8FR_339" phases=3 bus1="164701.1.2.3" bus2="8FR339.1.2.3" r1=0.001 r0=0.001 x1=0.0 x0=0.0 c1=0.0 c0=0.0  switch = T length=0.00100
New "Line.CMT_8CF_1462" phases=1 bus1="752711.3" bus2="8CF1462.3" r1=0.001 r0=0.001 x1=0.0 x0=0.0 c1=0.0 c0=0.0  switch = T length=0.00100
New "Line.CMT_8CF_1855" phases=3 bus1="799601.1.2.3" bus2="8CF1855.1.2.3" r1=0.001 r0=0.001 x1=0.0 x0=0.0 c1=0.0 c0=0.0  switch = T length=0.00100
New "Line.CMT_8CS_1870" phases=3 bus1="801891.1.2.3" bus2="8CS1870.1.2.3" r1=0.001 r0=0.001 x1=0.0 x0=0.0 c1=0.0 c0=0.0  switch = T length=0.00100
New "Line.CMT_8CF_1832" phases=1 bus1="799861.3" bus2="8CF1832.3" r1=0.001 r0=0.001 x1=0.0 x0=0.0 c1=0.0 c0=0.0  switch = T length=0.00100
New "Line.CMT_8FR_892" phases=3 bus1="699921.1.2.3" bus2="8FR892.1.2.3" r1=0.001 r0=0.001 x1=0.0 x0=0.0 c1=0.0 c0=0.0  switch = T length=0.00100
New "Line.CMT_8CF_1747" phases=1 bus1="814191.1" bus2="8CF1747.1" r1=0.001 r0=0.001 x1=0.0 x0=0.0 c1=0.0 c0=0.0  switch = T length=0.00100
New "Line.CMT_8CF_1937" phases=3 bus1="814272.1.2.3" bus2="8CF1937.1.2.3" r1=0.001 r0=0.001 x1=0.0 x0=0.0 c1=0.0 c0=0.0  switch = T length=0.00100
New "Line.CMT_8CF_1911" phases=1 bus1="813611.1" bus2="8CF1911.1" r1=0.001 r0=0.001 x1=0.0 x0=0.0 c1=0.0 c0=0.0  switch = T length=0.00100
New "Line.CMT_8CF_1903" phases=1 bus1="810871.1" bus2="8CF1903.1" r1=0.001 r0=0.001 x1=0.0 x0=0.0 c1=0.0 c0=0.0  switch = T length=0.00100
New "Line.CMT_8RL_1450" phases=3 bus1="751281.1.2.3" bus2="8RL1450.1.2.3" r1=0.001 r0=0.001 x1=0.0 x0=0.0 c1=0.0 c0=0.0  switch = T length=0.00100
New "Line.CMT_8CS_421" phases=3 bus1="445321.1.2.3" bus2="8CS421.1.2.3" r1=0.001 r0=0.001 x1=0.0 x0=0.0 c1=0.0 c0=0.0  switch = T length=0.00100
New "Line.CMT_8CF_1946" phases=1 bus1="814662.1" bus2="8CF1946.1" r1=0.001 r0=0.001 x1=0.0 x0=0.0 c1=0.0 c0=0.0  switch = T length=0.00100
New "Line.CMT_8CS_886" phases=3 bus1="340561.1.2.3" bus2="8CS886.1.2.3" r1=0.001 r0=0.001 x1=0.0 x0=0.0 c1=0.0 c0=0.0  switch = T length=0.00100
New "Line.CMT_7CF_1931" phases=1 bus1="822241.2" bus2="7CF1931.2" r1=0.001 r0=0.001 x1=0.0 x0=0.0 c1=0.0 c0=0.0  switch = T length=0.00100
New "Line.CMT_7FR_553" phases=3 bus1="816421.1.2.3" bus2="7FR553.1.2.3" r1=0.001 r0=0.001 x1=0.0 x0=0.0 c1=0.0 c0=0.0  switch = T length=0.00100
New "Line.CMT_8CF_923" phases=1 bus1="565521.3" bus2="8CF923.3" r1=0.001 r0=0.001 x1=0.0 x0=0.0 c1=0.0 c0=0.0  switch = T length=0.00100
New "Line.CMT_4CF_897" phases=1 bus1="556291.3" bus2="4CF897.3" r1=0.001 r0=0.001 x1=0.0 x0=0.0 c1=0.0 c0=0.0  switch = T length=0.00100
New "Line.CMT_8CF_333" phases=1 bus1="121451.2" bus2="8CF333.2" r1=0.001 r0=0.001 x1=0.0 x0=0.0 c1=0.0 c0=0.0  switch = T length=0.00100
New "Line.CMT_8CF_560" phases=1 bus1="192251.3" bus2="8CF560.3" r1=0.001 r0=0.001 x1=0.0 x0=0.0 c1=0.0 c0=0.0  switch = T length=0.00100
New "Line.CMT_8CF_559" phases=1 bus1="191531.2" bus2="8CF559.2" r1=0.001 r0=0.001 x1=0.0 x0=0.0 c1=0.0 c0=0.0  switch = T length=0.00100
New "Line.CMT_4CF_1365" phases=1 bus1="426171.3" bus2="4CF1365.3" r1=0.001 r0=0.001 x1=0.0 x0=0.0 c1=0.0 c0=0.0  switch = T length=0.00100
!New "Line.CMT_8CS_1262" phases=3 bus1="423791.1.2.3" bus2="8CS1262.1.2.3" r1=0.001 r0=0.001 x1=0.0 x0=0.0 c1=0.0 c0=0.0  switch = T length=0.00100
 !Chave MT em estado ABERTO!
New "Line.CMT_7CF_1181" phases=3 bus1="418191.1.2.3" bus2="7CF1181.1.2.3" r1=0.001 r0=0.001 x1=0.0 x0=0.0 c1=0.0 c0=0.0  switch = T length=0.00100
New "Line.CMT_7CF_795" phases=3 bus1="417981.1.2.3" bus2="7CF795.1.2.3" r1=0.001 r0=0.001 x1=0.0 x0=0.0 c1=0.0 c0=0.0  switch = T length=0.00100
New "Line.CMT_8CF_569" phases=3 bus1="171251.1.2.3" bus2="8CF569.1.2.3" r1=0.001 r0=0.001 x1=0.0 x0=0.0 c1=0.0 c0=0.0  switch = T length=0.00100
New "Line.CMT_8CF_588" phases=2 bus1="106811.1.2" bus2="8CF588.1.2" r1=0.001 r0=0.001 x1=0.0 x0=0.0 c1=0.0 c0=0.0  switch = T length=0.00100
New "Line.CMT_8CF_582" phases=1 bus1="790751.1" bus2="8CF582.1" r1=0.001 r0=0.001 x1=0.0 x0=0.0 c1=0.0 c0=0.0  switch = T length=0.00100
New "Line.CMT_8CF_581" phases=2 bus1="106491.2.3" bus2="8CF581.2.3" r1=0.001 r0=0.001 x1=0.0 x0=0.0 c1=0.0 c0=0.0  switch = T length=0.00100
New "Line.CMT_8CF_578" phases=2 bus1="106481.3.1" bus2="8CF578.3.1" r1=0.001 r0=0.001 x1=0.0 x0=0.0 c1=0.0 c0=0.0  switch = T length=0.00100
New "Line.CMT_8CF_573" phases=3 bus1="106461.1.2.3" bus2="8CF573.1.2.3" r1=0.001 r0=0.001 x1=0.0 x0=0.0 c1=0.0 c0=0.0  switch = T length=0.00100
New "Line.CMT_8CF_577" phases=3 bus1="106441.1.2.3" bus2="8CF577.1.2.3" r1=0.001 r0=0.001 x1=0.0 x0=0.0 c1=0.0 c0=0.0  switch = T length=0.00100
New "Line.CMT_8CF_336" phases=1 bus1="749951.2" bus2="8CF336.2" r1=0.001 r0=0.001 x1=0.0 x0=0.0 c1=0.0 c0=0.0  switch = T length=0.00100
New "Line.CMT_8CF_568" phases=2 bus1="769541.3.1" bus2="8CF568.3.1" r1=0.001 r0=0.001 x1=0.0 x0=0.0 c1=0.0 c0=0.0  switch = T length=0.00100
New "Line.CMT_7CF_1187" phases=1 bus1="593551.3" bus2="7CF1187.3" r1=0.001 r0=0.001 x1=0.0 x0=0.0 c1=0.0 c0=0.0  switch = T length=0.00100
New "Line.CMT_7CF_1075" phases=3 bus1="648501.1.2.3" bus2="7CF1075.1.2.3" r1=0.001 r0=0.001 x1=0.0 x0=0.0 c1=0.0 c0=0.0  switch = T length=0.00100
New "Line.CMT_8CF_1194" phases=1 bus1="476761.3" bus2="8CF1194.3" r1=0.001 r0=0.001 x1=0.0 x0=0.0 c1=0.0 c0=0.0  switch = T length=0.00100
New "Line.CMT_8CF_575" phases=1 bus1="474851.2" bus2="8CF575.2" r1=0.001 r0=0.001 x1=0.0 x0=0.0 c1=0.0 c0=0.0  switch = T length=0.00100
New "Line.CMT_8FR_571" phases=1 bus1="474461.2" bus2="8FR571.2" r1=0.001 r0=0.001 x1=0.0 x0=0.0 c1=0.0 c0=0.0  switch = T length=0.00100
New "Line.CMT_4CF_1333" phases=3 bus1="282571.1.2.3" bus2="4CF1333.1.2.3" r1=0.001 r0=0.001 x1=0.0 x0=0.0 c1=0.0 c0=0.0  switch = T length=0.00100
New "Line.CMT_8CF_909" phases=2 bus1="234061.3.1" bus2="8CF909.3.1" r1=0.001 r0=0.001 x1=0.0 x0=0.0 c1=0.0 c0=0.0  switch = T length=0.00100
New "Line.CMT_7FR_557" phases=3 bus1="761291.1.2.3" bus2="7FR557.1.2.3" r1=0.001 r0=0.001 x1=0.0 x0=0.0 c1=0.0 c0=0.0  switch = T length=0.00100
New "Line.CMT_7FR_543" phases=3 bus1="181961.1.2.3" bus2="7FR543.1.2.3" r1=0.001 r0=0.001 x1=0.0 x0=0.0 c1=0.0 c0=0.0  switch = T length=0.00100
New "Line.CMT_7FR_565" phases=1 bus1="194561.1" bus2="7FR565.1" r1=0.001 r0=0.001 x1=0.0 x0=0.0 c1=0.0 c0=0.0  switch = T length=0.00100
New "Line.CMT_7CF_1403" phases=1 bus1="383701.2" bus2="7CF1403.2" r1=0.001 r0=0.001 x1=0.0 x0=0.0 c1=0.0 c0=0.0  switch = T length=0.00100
New "Line.CMT_7CF_441" phases=2 bus1="378111.2.3" bus2="7CF441.2.3" r1=0.001 r0=0.001 x1=0.0 x0=0.0 c1=0.0 c0=0.0  switch = T length=0.00100
New "Line.CMT_7CF_709" phases=3 bus1="375261.1.2.3" bus2="7CF709.1.2.3" r1=0.001 r0=0.001 x1=0.0 x0=0.0 c1=0.0 c0=0.0  switch = T length=0.00100
New "Line.CMT_7CF_536" phases=3 bus1="362301.1.2.3" bus2="7CF536.1.2.3" r1=0.001 r0=0.001 x1=0.0 x0=0.0 c1=0.0 c0=0.0  switch = T length=0.00100
New "Line.CMT_8CF_885" phases=2 bus1="542341.2.3" bus2="8CF885.2.3" r1=0.001 r0=0.001 x1=0.0 x0=0.0 c1=0.0 c0=0.0  switch = T length=0.00100
New "Line.CMT_8CF_891" phases=1 bus1="542321.2" bus2="8CF891.2" r1=0.001 r0=0.001 x1=0.0 x0=0.0 c1=0.0 c0=0.0  switch = T length=0.00100
New "Line.CMT_8CF_884" phases=1 bus1="542301.2" bus2="8CF884.2" r1=0.001 r0=0.001 x1=0.0 x0=0.0 c1=0.0 c0=0.0  switch = T length=0.00100
New "Line.CMT_8CF_1338" phases=2 bus1="541131.3.1" bus2="8CF1338.3.1" r1=0.001 r0=0.001 x1=0.0 x0=0.0 c1=0.0 c0=0.0  switch = T length=0.00100
New "Line.CMT_8CF_1369" phases=3 bus1="540811.1.2.3" bus2="8CF1369.1.2.3" r1=0.001 r0=0.001 x1=0.0 x0=0.0 c1=0.0 c0=0.0  switch = T length=0.00100
New "Line.CMT_8CF_793" phases=1 bus1="539581.3" bus2="8CF793.3" r1=0.001 r0=0.001 x1=0.0 x0=0.0 c1=0.0 c0=0.0  switch = T length=0.00100
New "Line.CMT_7CF_1116" phases=1 bus1="764481.2" bus2="7CF1116.2" r1=0.001 r0=0.001 x1=0.0 x0=0.0 c1=0.0 c0=0.0  switch = T length=0.00100
New "Line.CMT_7CF_541" phases=3 bus1="773921.1.2.3" bus2="7CF541.1.2.3" r1=0.001 r0=0.001 x1=0.0 x0=0.0 c1=0.0 c0=0.0  switch = T length=0.00100
New "Line.CMT_7CF_1128" phases=3 bus1="412131.1.2.3" bus2="7CF1128.1.2.3" r1=0.001 r0=0.001 x1=0.0 x0=0.0 c1=0.0 c0=0.0  switch = T length=0.00100
!New "Line.CMT_7CS_1182" phases=3 bus1="390931.1.2.3" bus2="7CS1182.1.2.3" r1=0.001 r0=0.001 x1=0.0 x0=0.0 c1=0.0 c0=0.0  switch = T length=0.00100
 !Chave MT em estado ABERTO!
New "Line.CMT_8CF_570" phases=2 bus1="174751.2.3" bus2="8CF570.2.3" r1=0.001 r0=0.001 x1=0.0 x0=0.0 c1=0.0 c0=0.0  switch = T length=0.00100
New "Line.CMT_7CF_893" phases=1 bus1="625701.1" bus2="7CF893.1" r1=0.001 r0=0.001 x1=0.0 x0=0.0 c1=0.0 c0=0.0  switch = T length=0.00100
New "Line.CMT_8CF_1493" phases=1 bus1="314301.2" bus2="8CF1493.2" r1=0.001 r0=0.001 x1=0.0 x0=0.0 c1=0.0 c0=0.0  switch = T length=0.00100
New "Line.CMT_7CF_1081" phases=1 bus1="232781.2" bus2="7CF1081.2" r1=0.001 r0=0.001 x1=0.0 x0=0.0 c1=0.0 c0=0.0  switch = T length=0.00100
New "Line.CMT_8CF_933" phases=1 bus1="497441.3" bus2="8CF933.3" r1=0.001 r0=0.001 x1=0.0 x0=0.0 c1=0.0 c0=0.0  switch = T length=0.00100
New "Line.CMT_7CF_1184" phases=1 bus1="666041.2" bus2="7CF1184.2" r1=0.001 r0=0.001 x1=0.0 x0=0.0 c1=0.0 c0=0.0  switch = T length=0.00100
New "Line.CMT_7CF_538" phases=3 bus1="663811.1.2.3" bus2="7CF538.1.2.3" r1=0.001 r0=0.001 x1=0.0 x0=0.0 c1=0.0 c0=0.0  switch = T length=0.00100
New "Line.CMT_7CF_542" phases=3 bus1="723921.1.2.3" bus2="7CF542.1.2.3" r1=0.001 r0=0.001 x1=0.0 x0=0.0 c1=0.0 c0=0.0  switch = T length=0.00100
New "Line.CMT_8CF_1241" phases=1 bus1="719751.3" bus2="8CF1241.3" r1=0.001 r0=0.001 x1=0.0 x0=0.0 c1=0.0 c0=0.0  switch = T length=0.00100
New "Line.CMT_8CS_580" phases=3 bus1="702191.1.2.3" bus2="8CS580.1.2.3" r1=0.001 r0=0.001 x1=0.0 x0=0.0 c1=0.0 c0=0.0  switch = T length=0.00100
New "Line.CMT_4CF_1411" phases=1 bus1="677441.3" bus2="4CF1411.3" r1=0.001 r0=0.001 x1=0.0 x0=0.0 c1=0.0 c0=0.0  switch = T length=0.00100
New "Line.CMT_8CS_1348" phases=3 bus1="676051.1.2.3" bus2="8CS1348.1.2.3" r1=0.001 r0=0.001 x1=0.0 x0=0.0 c1=0.0 c0=0.0  switch = T length=0.00100
New "Line.CMT_8CF_1239" phases=1 bus1="731781.3" bus2="8CF1239.3" r1=0.001 r0=0.001 x1=0.0 x0=0.0 c1=0.0 c0=0.0  switch = T length=0.00100
New "Line.CMT_7FS_566" phases=1 bus1="729901.2" bus2="7FS566.2" r1=0.001 r0=0.001 x1=0.0 x0=0.0 c1=0.0 c0=0.0  switch = T length=0.00100
New "Line.CMT_7CF_552" phases=1 bus1="682911.2" bus2="7CF552.2" r1=0.001 r0=0.001 x1=0.0 x0=0.0 c1=0.0 c0=0.0  switch = T length=0.00100
New "Line.CMT_4CF_1484" phases=1 bus1="682871.3" bus2="4CF1484.3" r1=0.001 r0=0.001 x1=0.0 x0=0.0 c1=0.0 c0=0.0  switch = T length=0.00100
New "Line.CMT_7CF_554" phases=3 bus1="163751.1.2.3" bus2="7CF554.1.2.3" r1=0.001 r0=0.001 x1=0.0 x0=0.0 c1=0.0 c0=0.0  switch = T length=0.00100
New "Line.CMT_8CF_1321" phases=1 bus1="735801.2" bus2="8CF1321.2" r1=0.001 r0=0.001 x1=0.0 x0=0.0 c1=0.0 c0=0.0  switch = T length=0.00100
New "Line.CMT_8CS_1347" phases=3 bus1="745791.1.2.3" bus2="8CS1347.1.2.3" r1=0.001 r0=0.001 x1=0.0 x0=0.0 c1=0.0 c0=0.0  switch = T length=0.00100
New "Line.CMT_8CF_1474" phases=2 bus1="688791.2.3" bus2="8CF1474.2.3" r1=0.001 r0=0.001 x1=0.0 x0=0.0 c1=0.0 c0=0.0  switch = T length=0.00100
New "Line.CMT_8FR_574" phases=1 bus1="347821.2" bus2="8FR574.2" r1=0.001 r0=0.001 x1=0.0 x0=0.0 c1=0.0 c0=0.0  switch = T length=0.00100
New "Line.CMT_8CF_1380" phases=2 bus1="695401.3.1" bus2="8CF1380.3.1" r1=0.001 r0=0.001 x1=0.0 x0=0.0 c1=0.0 c0=0.0  switch = T length=0.00100
New "Line.CMT_7CF_550" phases=3 bus1="194731.1.2.3" bus2="7CF550.1.2.3" r1=0.001 r0=0.001 x1=0.0 x0=0.0 c1=0.0 c0=0.0  switch = T length=0.00100
New "Line.CMT_8CF_1665" phases=3 bus1="812541.1.2.3" bus2="8CF1665.1.2.3" r1=0.001 r0=0.001 x1=0.0 x0=0.0 c1=0.0 c0=0.0  switch = T length=0.00100
!New "Line.CMT_8CF_895" phases=3 bus1="304511.1.2.3" bus2="8CF895.1.2.3" r1=0.001 r0=0.001 x1=0.0 x0=0.0 c1=0.0 c0=0.0  switch = T length=0.00100
 !Chave MT em estado ABERTO!
New "Line.CMT_8FR_1041" phases=3 bus1="679181.1.2.3" bus2="8FR1041.1.2.3" r1=0.001 r0=0.001 x1=0.0 x0=0.0 c1=0.0 c0=0.0  switch = T length=0.00100
New "Line.CMT_8CF_591" phases=3 bus1="83911.1.2.3" bus2="8CF591.1.2.3" r1=0.001 r0=0.001 x1=0.0 x0=0.0 c1=0.0 c0=0.0  switch = T length=0.00100
New "Line.CMT_8CF_332" phases=1 bus1="121441.1" bus2="8CF332.1" r1=0.001 r0=0.001 x1=0.0 x0=0.0 c1=0.0 c0=0.0  switch = T length=0.00100
New "Line.CMT_8FR_907" phases=1 bus1="344811.2" bus2="8FR907.2" r1=0.001 r0=0.001 x1=0.0 x0=0.0 c1=0.0 c0=0.0  switch = T length=0.00100
New "Line.CMT_7CF_1263" phases=2 bus1="723791.1.2" bus2="7CF1263.1.2" r1=0.001 r0=0.001 x1=0.0 x0=0.0 c1=0.0 c0=0.0  switch = T length=0.00100

New "Line.CMT_8FR_894" phases=1 bus1="403701.2" bus2="8FR894.2" r1=0.001 r0=0.001 x1=0.0 x0=0.0 c1=0.0 c0=0.0  switch = T length=0.00100
New "Line.CMT_7CF_434" phases=3 bus1="367511.1.2.3" bus2="7CF434.1.2.3" r1=0.001 r0=0.001 x1=0.0 x0=0.0 c1=0.0 c0=0.0  switch = T length=0.00100
New "Line.CMT_7CF_667" phases=3 bus1="666081.1.2.3" bus2="7CF667.1.2.3" r1=0.001 r0=0.001 x1=0.0 x0=0.0 c1=0.0 c0=0.0  switch = T length=0.00100
New "Line.CMT_8CF_587" phases=2 bus1="815361.2.3" bus2="8CF587.2.3" r1=0.001 r0=0.001 x1=0.0 x0=0.0 c1=0.0 c0=0.0  switch = T length=0.00100
New "Line.CMT_7CF_1553" phases=1 bus1="748541.2" bus2="7CF1553.2" r1=0.001 r0=0.001 x1=0.0 x0=0.0 c1=0.0 c0=0.0  switch = T length=0.00100
New "Line.CMT_7CF_1552" phases=1 bus1="748531.1" bus2="7CF1552.1" r1=0.001 r0=0.001 x1=0.0 x0=0.0 c1=0.0 c0=0.0  switch = T length=0.00100
New "Line.CMT_7CS_1525" phases=3 bus1="747271.1.2.3" bus2="7CS1525.1.2.3" r1=0.001 r0=0.001 x1=0.0 x0=0.0 c1=0.0 c0=0.0  switch = T length=0.00100
New "Line.CMT_8CF_1337" phases=1 bus1="684841.2" bus2="8CF1337.2" r1=0.001 r0=0.001 x1=0.0 x0=0.0 c1=0.0 c0=0.0  switch = T length=0.00100
New "Line.CMT_8CF_1586" phases=1 bus1="752571.2" bus2="8CF1586.2" r1=0.001 r0=0.001 x1=0.0 x0=0.0 c1=0.0 c0=0.0  switch = T length=0.00100
New "Line.CMT_8CS_1486" phases=3 bus1="752451.1.2.3" bus2="8CS1486.1.2.3" r1=0.001 r0=0.001 x1=0.0 x0=0.0 c1=0.0 c0=0.0  switch = T length=0.00100
New "Line.CMT_8CF_1464" phases=2 bus1="764541.3.1" bus2="8CF1464.3.1" r1=0.001 r0=0.001 x1=0.0 x0=0.0 c1=0.0 c0=0.0  switch = T length=0.00100
New "Line.CMT_4CS_1559" phases=3 bus1="749501.1.2.3" bus2="4CS1559.1.2.3" r1=0.001 r0=0.001 x1=0.0 x0=0.0 c1=0.0 c0=0.0  switch = T length=0.00100
New "Line.CMT_4CS_1556" phases=3 bus1="749431.1.2.3" bus2="4CS1556.1.2.3" r1=0.001 r0=0.001 x1=0.0 x0=0.0 c1=0.0 c0=0.0  switch = T length=0.00100
New "Line.CMT_8CF_1599" phases=1 bus1="755901.2" bus2="8CF1599.2" r1=0.001 r0=0.001 x1=0.0 x0=0.0 c1=0.0 c0=0.0  switch = T length=0.00100
New "Line.CMT_7CS_1185" phases=3 bus1="666061.1.2.3" bus2="7CS1185.1.2.3" r1=0.001 r0=0.001 x1=0.0 x0=0.0 c1=0.0 c0=0.0  switch = T length=0.00100
New "Line.CMT_8CF_1592" phases=3 bus1="759471.1.2.3" bus2="8CF1592.1.2.3" r1=0.001 r0=0.001 x1=0.0 x0=0.0 c1=0.0 c0=0.0  switch = T length=0.00100
New "Line.CMT_8CF_1652" phases=3 bus1="762301.1.2.3" bus2="8CF1652.1.2.3" r1=0.001 r0=0.001 x1=0.0 x0=0.0 c1=0.0 c0=0.0  switch = T length=0.00100
New "Line.CMT_8CF_1674" phases=3 bus1="765501.1.2.3" bus2="8CF1674.1.2.3" r1=0.001 r0=0.001 x1=0.0 x0=0.0 c1=0.0 c0=0.0  switch = T length=0.00100
New "Line.CMT_7FR_548" phases=3 bus1="648221.1.2.3" bus2="7FR548.1.2.3" r1=0.001 r0=0.001 x1=0.0 x0=0.0 c1=0.0 c0=0.0  switch = T length=0.00100
New "Line.CMT_7CF_1633" phases=1 bus1="828121.2" bus2="7CF1633.2" r1=0.001 r0=0.001 x1=0.0 x0=0.0 c1=0.0 c0=0.0  switch = T length=0.00100
New "Line.CMT_7CS_1547" phases=3 bus1="756501.1.2.3" bus2="7CS1547.1.2.3" r1=0.001 r0=0.001 x1=0.0 x0=0.0 c1=0.0 c0=0.0  switch = T length=0.00100
New "Line.CMT_8CF_1461" phases=3 bus1="763501.1.2.3" bus2="8CF1461.1.2.3" r1=0.001 r0=0.001 x1=0.0 x0=0.0 c1=0.0 c0=0.0  switch = T length=0.00100
New "Line.CMT_4CF_1694" phases=3 bus1="766841.1.2.3" bus2="4CF1694.1.2.3" r1=0.001 r0=0.001 x1=0.0 x0=0.0 c1=0.0 c0=0.0  switch = T length=0.00100
New "Line.CMT_8CF_1629" phases=1 bus1="766831.1" bus2="8CF1629.1" r1=0.001 r0=0.001 x1=0.0 x0=0.0 c1=0.0 c0=0.0  switch = T length=0.00100
New "Line.CMT_7CF_564" phases=3 bus1="325921.1.2.3" bus2="7CF564.1.2.3" r1=0.001 r0=0.001 x1=0.0 x0=0.0 c1=0.0 c0=0.0  switch = T length=0.00100
New "Line.CMT_7FR_558" phases=3 bus1="546291.1.2.3" bus2="7FR558.1.2.3" r1=0.001 r0=0.001 x1=0.0 x0=0.0 c1=0.0 c0=0.0  switch = T length=0.00100
New "Line.CMT_4CF_1712" phases=3 bus1="771371.1.2.3" bus2="4CF1712.1.2.3" r1=0.001 r0=0.001 x1=0.0 x0=0.0 c1=0.0 c0=0.0  switch = T length=0.00100
New "Line.CMT_4CF_546" phases=1 bus1="771281.2" bus2="4CF546.2" r1=0.001 r0=0.001 x1=0.0 x0=0.0 c1=0.0 c0=0.0  switch = T length=0.00100
New "Line.CMT_8CF_334" phases=1 bus1="770861.1" bus2="8CF334.1" r1=0.001 r0=0.001 x1=0.0 x0=0.0 c1=0.0 c0=0.0  switch = T length=0.00100
New "Line.CMT_8CF_593" phases=3 bus1="247861.1.2.3" bus2="8CF593.1.2.3" r1=0.001 r0=0.001 x1=0.0 x0=0.0 c1=0.0 c0=0.0  switch = T length=0.00100
New "Line.CMT_8CF_1623" phases=1 bus1="770111.1" bus2="8CF1623.1" r1=0.001 r0=0.001 x1=0.0 x0=0.0 c1=0.0 c0=0.0  switch = T length=0.00100
New "Line.CMT_7CF_1669" phases=3 bus1="769971.1.2.3" bus2="7CF1669.1.2.3" r1=0.001 r0=0.001 x1=0.0 x0=0.0 c1=0.0 c0=0.0  switch = T length=0.00100
New "Line.CMT_7CF_1668" phases=1 bus1="770031.2" bus2="7CF1668.2" r1=0.001 r0=0.001 x1=0.0 x0=0.0 c1=0.0 c0=0.0  switch = T length=0.00100
New "Line.CMT_8CF_1680" phases=1 bus1="769251.2" bus2="8CF1680.2" r1=0.001 r0=0.001 x1=0.0 x0=0.0 c1=0.0 c0=0.0  switch = T length=0.00100
New "Line.CMT_7CF_549" phases=1 bus1="214261.1" bus2="7CF549.1" r1=0.001 r0=0.001 x1=0.0 x0=0.0 c1=0.0 c0=0.0  switch = T length=0.00100
New "Line.CMT_7CF_1334" phases=1 bus1="282581.3" bus2="7CF1334.3" r1=0.001 r0=0.001 x1=0.0 x0=0.0 c1=0.0 c0=0.0  switch = T length=0.00100
New "Line.CMT_7CF_551" phases=3 bus1="181941.1.2.3" bus2="7CF551.1.2.3" r1=0.001 r0=0.001 x1=0.0 x0=0.0 c1=0.0 c0=0.0  switch = T length=0.00100
New "Line.CMT_7FR_544" phases=1 bus1="774111.1" bus2="7FR544.1" r1=0.001 r0=0.001 x1=0.0 x0=0.0 c1=0.0 c0=0.0  switch = T length=0.00100
New "Line.CMT_4CF_545" phases=3 bus1="627611.1.2.3" bus2="4CF545.1.2.3" r1=0.001 r0=0.001 x1=0.0 x0=0.0 c1=0.0 c0=0.0  switch = T length=0.00100
New "Line.CMT_8CF_341" phases=2 bus1="121531.2.3" bus2="8CF341.2.3" r1=0.001 r0=0.001 x1=0.0 x0=0.0 c1=0.0 c0=0.0  switch = T length=0.00100
New "Line.CMT_8CF_1700" phases=1 bus1="771951.2" bus2="8CF1700.2" r1=0.001 r0=0.001 x1=0.0 x0=0.0 c1=0.0 c0=0.0  switch = T length=0.00100
New "Line.CMT_8CF_340" phases=2 bus1="121491.2.3" bus2="8CF340.2.3" r1=0.001 r0=0.001 x1=0.0 x0=0.0 c1=0.0 c0=0.0  switch = T length=0.00100
New "Line.CMT_4CF_1714" phases=1 bus1="771171.1" bus2="4CF1714.1" r1=0.001 r0=0.001 x1=0.0 x0=0.0 c1=0.0 c0=0.0  switch = T length=0.00100
New "Line.CMT_4CF_1713" phases=1 bus1="773931.1" bus2="4CF1713.1" r1=0.001 r0=0.001 x1=0.0 x0=0.0 c1=0.0 c0=0.0  switch = T length=0.00100
New "Line.CMT_8FR_585" phases=3 bus1="745741.1.2.3" bus2="8FR585.1.2.3" r1=0.001 r0=0.001 x1=0.0 x0=0.0 c1=0.0 c0=0.0  switch = T length=0.00100
New "Line.CMT_7FR_547" phases=3 bus1="444011.1.2.3" bus2="7FR547.1.2.3" r1=0.001 r0=0.001 x1=0.0 x0=0.0 c1=0.0 c0=0.0  switch = T length=0.00100
New "Line.CMT_8CF_1701" phases=3 bus1="775521.1.2.3" bus2="8CF1701.1.2.3" r1=0.001 r0=0.001 x1=0.0 x0=0.0 c1=0.0 c0=0.0  switch = T length=0.00100
New "Line.CMT_8RL_813" phases=3 bus1="775341.1.2.3" bus2="8RL813.1.2.3" r1=0.001 r0=0.001 x1=0.0 x0=0.0 c1=0.0 c0=0.0  switch = T length=0.00100
New "Line.CMT_8FR_887" phases=1 bus1="599181.3" bus2="8FR887.3" r1=0.001 r0=0.001 x1=0.0 x0=0.0 c1=0.0 c0=0.0  switch = T length=0.00100
New "Line.CMT_8CF_343" phases=2 bus1="774631.2.3" bus2="8CF343.2.3" r1=0.001 r0=0.001 x1=0.0 x0=0.0 c1=0.0 c0=0.0  switch = T length=0.00100
!New "Line.CMT_8RT9712" phases=3 bus1="809171.1.2.3" bus2="RT310761.1.2.3" r1=0.001 r0=0.001 x1=0.0 x0=0.0 c1=0.0 c0=0.0  switch = T length=0.00100
 !Chave MT em estado ABERTO!
